  Page 1                                    Fri Sep 06 12:34:29 2024

  ******************************************************************
  *                           E P A N E T                          *
  *                   Hydraulic and Water Quality                  *
  *                   Analysis for Pipe Networks                   *
  *                         Version 2.2                            *
  ******************************************************************
  
  Analysis begun Fri Sep 06 12:34:29 2024

  Analysis ended Fri Sep 06 12:34:30 2024
